Version 4
SHEET 1 1364 680
WIRE -400 -208 -416 -208
WIRE -304 -208 -320 -208
WIRE -224 -208 -304 -208
WIRE -160 -208 -224 -208
WIRE -16 -208 -32 -208
WIRE 80 -208 64 -208
WIRE 176 -208 80 -208
WIRE 224 -208 176 -208
WIRE 864 -208 816 -208
WIRE 976 -208 944 -208
WIRE 1088 -208 976 -208
WIRE 1184 -208 1088 -208
WIRE 1248 -208 1184 -208
WIRE -304 -192 -304 -208
WIRE -224 -192 -224 -208
WIRE 80 -192 80 -208
WIRE 176 -176 176 -208
WIRE 976 -160 976 -208
WIRE 1088 -160 1088 -208
WIRE 1184 -160 1184 -208
WIRE -304 -96 -304 -112
WIRE -224 -96 -224 -128
WIRE 80 -96 80 -112
WIRE 176 -96 176 -112
WIRE -192 -48 -208 -48
WIRE -112 -48 -128 -48
WIRE 976 -48 976 -96
WIRE 1088 -48 1088 -96
WIRE 1184 -48 1184 -80
WIRE -416 48 -464 48
WIRE -240 48 -416 48
WIRE -208 48 -208 -48
WIRE -208 48 -240 48
WIRE -192 48 -208 48
WIRE -112 48 -112 -48
WIRE -112 48 -128 48
WIRE -96 48 -112 48
WIRE 32 48 -16 48
WIRE 112 48 32 48
WIRE 224 48 176 48
WIRE 304 48 224 48
WIRE 416 48 304 48
WIRE 656 80 608 80
WIRE 976 80 912 80
WIRE 1088 80 976 80
WIRE 1184 80 1088 80
WIRE 1248 80 1184 80
WIRE -464 112 -464 48
WIRE -240 112 -240 48
WIRE 32 112 32 48
WIRE 224 112 224 48
WIRE 304 112 304 48
WIRE 976 128 976 80
WIRE 1088 128 1088 80
WIRE 1184 128 1184 80
WIRE 784 240 784 176
WIRE 976 240 976 192
WIRE 1088 240 1088 192
WIRE 1184 240 1184 208
WIRE -464 256 -464 192
WIRE -416 256 -464 256
WIRE -368 256 -416 256
WIRE -240 256 -240 176
WIRE -240 256 -288 256
WIRE 32 256 32 176
WIRE 32 256 -240 256
WIRE 224 256 224 176
WIRE 224 256 32 256
WIRE 304 256 304 176
WIRE 304 256 224 256
WIRE 352 256 304 256
WIRE 352 272 352 256
FLAG 416 48 Vin
IOPIN 416 48 Out
FLAG 352 272 0
FLAG 784 240 0
FLAG 1088 240 0
FLAG 1248 80 3v3d
IOPIN 1248 80 Out
FLAG 1184 240 0
FLAG -416 48 P
FLAG -416 256 N
FLAG -416 -208 P
IOPIN -416 -208 In
FLAG -224 -96 0
FLAG -160 -208 Vp
IOPIN -160 -208 Out
FLAG -32 -208 N
IOPIN -32 -208 In
FLAG 80 -96 0
FLAG 176 -96 0
FLAG 224 -208 Vn
IOPIN 224 -208 Out
FLAG -304 -96 0
FLAG 976 240 0
FLAG 608 80 Vin
IOPIN 608 80 In
FLAG 816 -208 3v3d
IOPIN 816 -208 In
FLAG 1088 -48 0
FLAG 976 -48 0
FLAG 1248 -208 3v3a
IOPIN 1248 -208 Out
FLAG 1184 -48 0
SYMBOL voltage -464 96 R0
WINDOW 123 0 0 Left 0
WINDOW 39 0 0 Left 0
SYMATTR InstName V1
SYMATTR Value SINE(0 325 50)
SYMBOL cap -256 112 R0
SYMATTR InstName C1
SYMATTR Value 0.01µ
SYMATTR SpiceLine V=500 Irms=231m Rser=0.373094 Lser=0 mfg="KEMET" pn="C0805C103KCRAC" type="X7R"
SYMBOL cap -192 64 R270
WINDOW 0 32 32 VTop 2
WINDOW 3 0 32 VBottom 2
SYMATTR InstName C2
SYMATTR Value 0.47µ
SYMATTR SpiceLine V=200 Irms=3.46 Rser=0.0302434 Lser=0 mfg="KEMET" pn="C2220C474K2RAC" type="X7R"
SYMBOL zener 48 176 R180
WINDOW 0 24 64 Left 2
WINDOW 3 24 0 Left 2
SYMATTR InstName D1
SYMATTR Value BZX84B15VL
SYMATTR Description Diode
SYMATTR Type diode
SYMBOL res -112 64 R270
WINDOW 0 32 56 VTop 2
WINDOW 3 0 56 VBottom 2
SYMATTR InstName R1
SYMATTR Value 33
SYMBOL diode 112 64 R270
WINDOW 0 32 32 VTop 2
WINDOW 3 0 32 VBottom 2
SYMATTR InstName D2
SYMATTR Value RR1VWM6S
SYMBOL polcap 288 112 R0
WINDOW 3 24 56 Left 2
SYMATTR Value 470µ
SYMATTR InstName C3
SYMATTR Description Capacitor
SYMATTR Type cap
SYMATTR SpiceLine V=50 Irms=1.49 Rser=0.044 Lser=0 mfg="United Chemi-Con" pn="LXF50VB471M12X25LL" type="Al electrolytic"
SYMBOL PowerProducts\\LT1117-3.3 784 80 R0
SYMATTR InstName U1
SYMBOL polcap 1072 128 R0
WINDOW 3 24 56 Left 2
SYMATTR Value 10µ
SYMATTR InstName C4
SYMATTR Description Capacitor
SYMATTR Type cap
SYMATTR SpiceLine V=35 Irms=0 Rser=0.3 Lser=0 mfg="AVX" pn="TPSD106M035R0300" type="Tantalum"
SYMBOL res -272 240 R90
WINDOW 0 0 56 VBottom 2
WINDOW 3 32 56 VTop 2
SYMATTR InstName R2
SYMATTR Value 55
SYMBOL res 1168 112 R0
SYMATTR InstName R3
SYMATTR Value 165
SYMBOL res -304 -224 R90
WINDOW 0 0 56 VBottom 2
WINDOW 3 32 56 VTop 2
SYMATTR InstName R4
SYMATTR Value 750k
SYMBOL cap -240 -192 R0
SYMATTR InstName C5
SYMATTR Value 33n
SYMBOL res 80 -224 R90
WINDOW 0 0 56 VBottom 2
WINDOW 3 32 56 VTop 2
SYMATTR InstName R5
SYMATTR Value 750k
SYMBOL res 64 -208 R0
SYMATTR InstName R6
SYMATTR Value 1k
SYMBOL cap 160 -176 R0
SYMATTR InstName C6
SYMATTR Value 33n
SYMBOL res -320 -208 R0
SYMATTR InstName R7
SYMATTR Value 1k
SYMBOL cap 208 112 R0
SYMATTR InstName C7
SYMATTR Value 0.1µ
SYMATTR SpiceLine V=50 Irms=1.34 Rser=0.0989014 Lser=0 mfg="KEMET" pn="C0805C104K5RAC" type="X7R"
SYMBOL cap 960 128 R0
SYMATTR InstName C8
SYMATTR Value 0.1µ
SYMATTR SpiceLine V=50 Irms=1.34 Rser=0.0989014 Lser=0 mfg="KEMET" pn="C0805C104K5RAC" type="X7R"
SYMBOL res 960 -224 R90
WINDOW 0 0 56 VBottom 2
WINDOW 3 32 56 VTop 2
SYMATTR InstName R8
SYMATTR Value 100
SYMBOL polcap 1072 -160 R0
WINDOW 3 24 56 Left 2
SYMATTR Value 10µ
SYMATTR InstName C9
SYMATTR Description Capacitor
SYMATTR Type cap
SYMATTR SpiceLine V=35 Irms=0 Rser=0.3 Lser=0 mfg="AVX" pn="TPSD106M035R0300" type="Tantalum"
SYMBOL cap 960 -160 R0
SYMATTR InstName C10
SYMATTR Value 0.1µ
SYMATTR SpiceLine V=50 Irms=1.34 Rser=0.0989014 Lser=0 mfg="KEMET" pn="C0805C104K5RAC" type="X7R"
SYMBOL res 1168 -176 R0
SYMATTR InstName R9
SYMATTR Value 3.3k
SYMBOL cap -192 -32 R270
WINDOW 0 32 32 VTop 2
WINDOW 3 0 32 VBottom 2
SYMATTR InstName C11
SYMATTR Value 0.47µ
SYMATTR SpiceLine V=200 Irms=3.46 Rser=0.0302434 Lser=0 mfg="KEMET" pn="C2220C474K2RAC" type="X7R"
TEXT -496 280 Left 2 !.tran 500m
